Circuit: * C:\Users\rodri\OneDrive\Escritorio\practica4-electronica\1.1.1.ASC

.OP point found by inspection.
.step vgs=0
.step vgs=1
.step vgs=2
.step vgs=3
.step vgs=4
.step vgs=5

Date: Thu Dec 02 22:40:33 2021
Total elapsed time: 0.464 seconds.

tnom = 27
temp = 27
method = trap
totiter = 6020
traniter = 0
tranpoints = 0
accept = 0
rejected = 0
matrix size = 4
fillins = 0
solver = Normal
Matrix Compiler1:       7 opcodes  0.1/[0.1]/0.1
Matrix Compiler2: 216 bytes object code size  0.1/0.1/[0.1]

