Circuit: * C:\Users\rodri\OneDrive\Escritorio\practica4-electronica\1.2.2.ASC

Direct Newton iteration for .op point succeeded.

Date: Thu Dec 02 18:51:17 2021
Total elapsed time: 0.173 seconds.

tnom = 27
temp = 27
method = modified trap
totiter = 2202
traniter = 2198
tranpoints = 1100
accept = 1094
rejected = 6
matrix size = 5
fillins = 0
solver = Normal
Matrix Compiler1:       7 opcodes  0.0/[0.0]/0.0
Matrix Compiler2: 301 bytes object code size  0.1/0.0/[0.0]

