Circuit: * C:\Users\rodri\OneDrive\Escritorio\practica4-electronica\1.2.1.ASC

Vi: Missing value, assumed 0V @ DC

Date: Thu Dec 02 22:40:41 2021
Total elapsed time: 0.156 seconds.

tnom = 27
temp = 27
method = trap
totiter = 1004
traniter = 0
tranpoints = 0
accept = 0
rejected = 0
matrix size = 5
fillins = 0
solver = Normal
Matrix Compiler1: 114 bytes object code size  0.1/0.1/[0.1]
Matrix Compiler2: 301 bytes object code size  0.1/0.1/[0.1]

