Circuit: * C:\Users\rodri\OneDrive\Escritorio\practica4-electronica\1.3.3.ASC

Direct Newton iteration for .op point succeeded.
Heightened Def Con from 0.0248492 +++++++to 0.0248492
Heightened Def Con from 0.0751508 to 0.0751508
Heightened Def Con from 0.175151 +to 0.175151

Date: Thu Dec 02 22:41:24 2021
Total elapsed time: 0.171 seconds.

tnom = 27
temp = 27
method = modified trap
totiter = 4448
traniter = 4440
tranpoints = 1432
accept = 1270
rejected = 173
matrix size = 6
fillins = 0
solver = Normal
Matrix Compiler1: 164 bytes object code size  0.2/0.1/[0.1]
Matrix Compiler2: 414 bytes object code size  0.1/0.2/[0.1]

