Circuit: * C:\Users\rodri\OneDrive\Escritorio\practica4-electronica\1.3.1.ASC

Vi: Missing value, assumed 0V @ DC

Date: Thu Dec 02 18:53:40 2021
Total elapsed time: 0.104 seconds.

tnom = 27
temp = 27
method = trap
totiter = 1040
traniter = 0
tranpoints = 0
accept = 0
rejected = 0
matrix size = 6
fillins = 0
solver = Normal
Matrix Compiler1: 164 bytes object code size  0.1/0.1/[0.0]
Matrix Compiler2: 414 bytes object code size  0.1/0.1/[0.1]

