Circuit: * C:\Users\rodri\OneDrive\Escritorio\practica4-electronica\1.4.1.ASC

Direct Newton iteration for .op point succeeded.
Heightened Def Con from 5.00268e-005 +++to 5.00268e-005
Heightened Def Con from 0.000150027 ++++++++++++to 0.000150027
Heightened Def Con from 0.000200076 +to 0.000200076
Heightened Def Con from 0.000250027 ++++++++++to 0.000250027

Date: Thu Dec 02 22:41:37 2021
Total elapsed time: 0.219 seconds.

tnom = 27
temp = 27
method = modified trap
totiter = 9039
traniter = 9029
tranpoints = 2025
accept = 1565
rejected = 490
matrix size = 11
fillins = 0
solver = Normal
Matrix Compiler1: 468 bytes object code size  0.3/0.2/[0.1]
Matrix Compiler2: 897 bytes object code size  0.2/0.3/[0.2]

