Circuit: * C:\Users\rodri\OneDrive\Escritorio\UMA\Electrónica\practicas\practica2-electronica\1.1.4.ASC

Direct Newton iteration for .op point succeeded.

Date: Thu Nov 04 18:22:59 2021
Total elapsed time: 0.201 seconds.

tnom = 27
temp = 27
method = modified trap
totiter = 2196
traniter = 2189
tranpoints = 1088
accept = 1084
rejected = 4
matrix size = 4
fillins = 0
solver = Normal
Matrix Compiler1: 118 bytes object code size  0.1/0.1/[0.1]
Matrix Compiler2: 242 bytes object code size  0.1/0.1/[0.1]

