Circuit: * C:\Users\rodri\OneDrive\Escritorio\UMA\Electrónica\practicas\practica2-electronica\1.1.2.ASC


Date: Thu Nov 04 18:04:00 2021
Total elapsed time: 0.094 seconds.

tnom = 27
temp = 27
method = trap
totiter = 652
traniter = 0
tranpoints = 0
accept = 0
rejected = 0
matrix size = 4
fillins = 0
solver = Normal
Matrix Compiler1: 118 bytes object code size  0.1/0.1/[0.1]
Matrix Compiler2: off  [0.1]/0.1/0.1

