Circuit: * C:\Users\rodri\OneDrive\Escritorio\UMA\Electrónica\practicas\practica2-electronica\1.2.2.ASC

Direct Newton iteration for .op point succeeded.

Date: Thu Nov 04 17:36:00 2021
Total elapsed time: 0.094 seconds.

tnom = 27
temp = 27
method = modified trap
totiter = 2561
traniter = 2545
tranpoints = 1197
accept = 1152
rejected = 45
matrix size = 8
fillins = 2
solver = Normal
Matrix Compiler1: 336 bytes object code size  0.2/0.2/[0.1]
Matrix Compiler2: 608 bytes object code size  0.2/0.2/[0.2]

