Circuit: * C:\Users\rodri\OneDrive\Escritorio\UMA\Electrónica\practicas\practica2-electronica\1.2.1.ASC

.OP point found by inspection.

Date: Thu Nov 04 17:35:29 2021
Total elapsed time: 0.078 seconds.

tnom = 27
temp = 27
method = modified trap
totiter = 2114
traniter = 2114
tranpoints = 1042
accept = 1042
rejected = 0
matrix size = 8
fillins = 0
solver = Normal
Matrix Compiler1: 318 bytes object code size  0.2/0.2/[0.2]
Matrix Compiler2: 574 bytes object code size  0.2/0.2/[0.2]

