Circuit: * C:\Users\rodri\OneDrive\Escritorio\practica3-electronica\1.1.1.asc

Vce: Missing value, assumed 0V @ DC
.OP point found by inspection.
.step ib=0
.step ib=1e-005
.step ib=2e-005
.step ib=3e-005
.step ib=4e-005
.step ib=5e-005

Date: Thu Dec 02 22:39:54 2021
Total elapsed time: 0.294 seconds.

tnom = 27
temp = 27
method = trap
totiter = 6043
traniter = 0
tranpoints = 0
accept = 0
rejected = 0
matrix size = 6
fillins = 0
solver = Normal
Matrix Compiler1: 360 bytes object code size  0.2/0.2/[0.2]
Matrix Compiler2: 462 bytes object code size  0.1/0.2/[0.1]

