Circuit: * C:\Users\rodri\OneDrive\Escritorio\practica3-electronica\1.2.2.asc

Direct Newton iteration for .op point succeeded.

Date: Thu Dec 02 17:52:59 2021
Total elapsed time: 0.079 seconds.

tnom = 27
temp = 27
method = modified trap
totiter = 2729
traniter = 2724
tranpoints = 1238
accept = 1181
rejected = 57
matrix size = 9
fillins = 0
solver = Normal
Matrix Compiler1: 456 bytes object code size  0.3/0.2/[0.1]
Matrix Compiler2: 667 bytes object code size  0.2/0.3/[0.2]

