Circuit: * C:\Users\rodri\OneDrive\Escritorio\practica3-electronica\1.2.1.asc

Vi: Missing value, assumed 0V @ DC

Date: Thu Dec 02 22:39:44 2021
Total elapsed time: 0.063 seconds.

tnom = 27
temp = 27
method = trap
totiter = 1020
traniter = 0
tranpoints = 0
accept = 0
rejected = 0
matrix size = 9
fillins = 0
solver = Normal
Matrix Compiler1: 456 bytes object code size  0.3/0.2/[0.1]
Matrix Compiler2: 667 bytes object code size  0.2/0.3/[0.2]

