Circuit: * C:\Users\Jesus Mora\Desktop\practica3-electronica\Draft1.asc

.OP point found by inspection.
.step vgs=0
.step vgs=1
.step vgs=2
.step vgs=3
.step vgs=4
.step vgs=5

Date: Sat Nov 30 19:37:05 2019
Total elapsed time: 0.107 seconds.

tnom = 27
temp = 27
method = trap
totiter = 6020
traniter = 0
tranpoints = 0
accept = 0
rejected = 0
matrix size = 4
fillins = 0
solver = Normal
Matrix Compiler1: 118 bytes object code size  0.1/0.0/[0.0]
Matrix Compiler2: 216 bytes object code size  0.0/0.0/[0.0]

