Circuit: * C:\Users\rodri\OneDrive\Escritorio\77228554m_electronica.asc

Direct Newton iteration for .op point succeeded.

Date: Tue Oct 26 22:11:50 2021
Total elapsed time: 0.038 seconds.

tnom = 27
temp = 27
method = trap
totiter = 3
traniter = 0
tranpoints = 0
accept = 0
rejected = 0
matrix size = 9
fillins = 2
solver = Normal
Matrix Compiler1: 336 bytes object code size
Matrix Compiler2: 639 bytes object code size
